
**** 12/19/10 23:36:04 ********* PSpice 9.2 (Mar 2000) ******** ID# 1 ********

 ** Profile: "SCHEMATIC1-Bias"  [ C:\Users\deng\Desktop\\experiments\09300720075\1_6sr-schematic1-bias.sim ] 


 ****     CIRCUIT DESCRIPTION


******************************************************************************




** Creating circuit file "1_6sr-schematic1-bias.sim.cir" 
** WARNING: THIS AUTOMATICALLY GENERATED FILE MAY BE OVERWRITTEN BY SUBSEQUENT SIMULATIONS

*Libraries: 
* Local Libraries :
* From [PSPICE NETLIST] section of d:\orcad92\PSpice\PSpice.ini file:
.lib "nom.lib" 

*Analysis directives: 
.TRAN  0 100us 0 0.1u 
.PROBE V(*) I(*) W(*) D(*) NOISE(*) 
.INC ".\1_6sr-SCHEMATIC1.net" 



**** INCLUDING 1_6sr-SCHEMATIC1.net ****
* source 1_6SR
X_U2         N00852 N00813 N01136 N01000 N01088 uA741
R_R1         N00813 N01088  10k  
R_R4         N007011 N02643  1k  
R_R2         N00759 N00813  10k  
R_R3         0 N00852  5.1k  
V_V1         N01136 0 12Vdc
V_V2         0 N01000 12Vdc
V_V4         N00759 0  
+SIN 0 10 20k 0 0 0
V_V3         N02643 N007011  
+PULSE 0 1 0 0 0 5u 10u

**** RESUMING 1_6sr-schematic1-bias.sim.cir ****
.END

ERROR -- Node N007011 is floating
ERROR -- Node N02643 is floating