
**** 04/26/11 23:44:01 ********* PSpice 9.2 (Mar 2000) ******** ID# 1 ********

 ** Profile: "SCHEMATIC1-Bias"  [ C:\Users\deng\Desktop\\experiment\4\bjt1-schematic1-bias.sim ] 


 ****     CIRCUIT DESCRIPTION


******************************************************************************




** Creating circuit file "bjt1-schematic1-bias.sim.cir" 
** WARNING: THIS AUTOMATICALLY GENERATED FILE MAY BE OVERWRITTEN BY SUBSEQUENT SIMULATIONS

*Libraries: 
* Local Libraries :
* From [PSPICE NETLIST] section of d:\orcad92\PSpice\PSpice.ini file:
.lib "nom.lib" 

*Analysis directives: 
.TRAN  0 130ms 110ms 0.1m 
.PROBE V(*) I(*) W(*) D(*) NOISE(*) 
.INC ".\BJT1-SCHEMATIC1.net" 



**** INCLUDING BJT1-SCHEMATIC1.net ****
* source BJT1
R_R1         N02010 N02427  300k  
Q_Q2         N03080 N03612 N02836 Q2N2222
X_D12         N007790 N02358 D1N4500 
R_R8         N03133 N03612  30k  
V_V1         N008230 0 12Vdc
R_R2         N02010 N17216  15k  
Q_Q3         N03612 N03080 N02917 Q2N2605
R_R9         N02427 N02358  18k  
V_V5         N05167 0 12Vdc
X_D10         0 N03133 D1N4500 
V_V2         N01528 0 -12Vdc
R_R10         N02427 N007790  10  
X_D14         N02306 0 D1N4500 
R_R11         N03133 N01528  20k  
X_U6A         N02306 N02358 N05167 N05266 N04012 LF353/NS
X_U5A         N03133 N02836 N05167 N05266 N02917 LF353/NS
X_D9         N02787 N30585 D1N4500 
R_R12         N02306 N008230  20k  
X_D13         0 N02121 D1N4500 
R_R13         N02917 N03824  6.8K  
X_U4A         N02605 N02010 N05167 N05266 N02427 LF353/NS
R_R3         0 N02605  20k  
R_R14         N02121 N03794  120  
X_D8         N02427 N17216 D1N4500 
R_R15         N02121 N04012  10  
R_R4         N02427 N02605  51k  
C_C1         0 N02010  10n  
V_V6         0 N05266 12Vdc
R_R5         N30585 0  1.5k  
R_R16         0 N02121  20K  
C_C2         N30585 N02427  3.4n  
Q_Q1         N03794 N03824 0 Q2N2222
R_R6         N02787 N02836  6.8k  
R_R17         N03032 N02917  1k  
C_C3         N02917 N02836  10n  
X_D11         N02358 N04012 D1N4500 
R_R18         0 N03032  100k  
R_R7         N03080 N03032  30k  
C_C4         N04012 N02358  100n  

**** RESUMING bjt1-schematic1-bias.sim.cir ****
.END

**** 04/26/11 23:44:01 ********* PSpice 9.2 (Mar 2000) ******** ID# 1 ********

 ** Profile: "SCHEMATIC1-Bias"  [ C:\Users\deng\Desktop\\experiment\4\bjt1-schematic1-bias.sim ] 


 ****     Diode MODEL PARAMETERS


******************************************************************************




               X_D12.DFWD      X_D12.DXTRA     X_D12.DLEAK     X_D10.DFWD      
          IS   71.949420E-15   68.819730E-12    5.810722E-15   71.949420E-15 
           N     .960183        2.15458       180.584            .960183     
         ISR   96.498840E-15                                   96.498840E-15 
          NR    1.82557                                         1.82557      
         IKF  237.528000E-06     .053136                      237.528000E-06 
          BV   86.542         100.000000E+03  100.000000E+03   86.542        
         IBV     .3447          1.000000E-03    1.000000E-03     .3447       
          RS     .236317         .028472         .1              .236317     
          TT    6.656200E-09                                    6.656200E-09 
         CJO    4.000000E-12                                    4.000000E-12 
          VJ     .75                                             .75         
           M     .3333                                           .3333       


               X_D10.DXTRA     X_D10.DLEAK     X_D14.DFWD      X_D14.DXTRA     
          IS   68.819730E-12    5.810722E-15   71.949420E-15   68.819730E-12 
           N    2.15458       180.584            .960183        2.15458      
         ISR                                   96.498840E-15                 
          NR                                    1.82557                      
         IKF     .053136                      237.528000E-06     .053136     
          BV  100.000000E+03  100.000000E+03   86.542         100.000000E+03 
         IBV    1.000000E-03    1.000000E-03     .3447          1.000000E-03 
          RS     .028472         .1              .236317         .028472     
          TT                                    6.656200E-09                 
         CJO                                    4.000000E-12                 
          VJ                                     .75                         
           M                                     .3333                       


               X_D14.DLEAK     X_U6A.DX        X_U5A.DX        X_D9.DFWD       
          IS    5.810722E-15    1.000000E-15    1.000000E-15   71.949420E-15 
           N  180.584                                            .960183     
         ISR                                                   96.498840E-15 
          NR                                                    1.82557      
         IKF                                                  237.528000E-06 
          BV  100.000000E+03                                   86.542        
         IBV    1.000000E-03                                     .3447       
          RS     .1                                              .236317     
          TT                                                    6.656200E-09 
         CJO                                                    4.000000E-12 
          VJ                                                     .75         
           M                                                     .3333       


               X_D9.DXTRA      X_D9.DLEAK      X_D13.DFWD      X_D13.DXTRA     
          IS   68.819730E-12    5.810722E-15   71.949420E-15   68.819730E-12 
           N    2.15458       180.584            .960183        2.15458      
         ISR                                   96.498840E-15                 
          NR                                    1.82557                      
         IKF     .053136                      237.528000E-06     .053136     
          BV  100.000000E+03  100.000000E+03   86.542         100.000000E+03 
         IBV    1.000000E-03    1.000000E-03     .3447          1.000000E-03 
          RS     .028472         .1              .236317         .028472     
          TT                                    6.656200E-09                 
         CJO                                    4.000000E-12                 
          VJ                                     .75                         
           M                                     .3333                       


               X_D13.DLEAK     X_U4A.DX        X_D8.DFWD       X_D8.DXTRA      
          IS    5.810722E-15    1.000000E-15   71.949420E-15   68.819730E-12 
           N  180.584                            .960183        2.15458      
         ISR                                   96.498840E-15                 
          NR                                    1.82557                      
         IKF                                  237.528000E-06     .053136     
          BV  100.000000E+03                   86.542         100.000000E+03 
         IBV    1.000000E-03                     .3447          1.000000E-03 
          RS     .1                              .236317         .028472     
          TT                                    6.656200E-09                 
         CJO                                    4.000000E-12                 
          VJ                                     .75                         
           M                                     .3333                       


               X_D8.DLEAK      X_D11.DFWD      X_D11.DXTRA     X_D11.DLEAK     
          IS    5.810722E-15   71.949420E-15   68.819730E-12    5.810722E-15 
           N  180.584            .960183        2.15458       180.584        
         ISR                   96.498840E-15                                 
          NR                    1.82557                                      
         IKF                  237.528000E-06     .053136                     
          BV  100.000000E+03   86.542         100.000000E+03  100.000000E+03 
         IBV    1.000000E-03     .3447          1.000000E-03    1.000000E-03 
          RS     .1              .236317         .028472         .1          
          TT                    6.656200E-09                                 
         CJO                    4.000000E-12                                 
          VJ                     .75                                         
           M                     .3333                                       


**** 04/26/11 23:44:01 ********* PSpice 9.2 (Mar 2000) ******** ID# 1 ********

 ** Profile: "SCHEMATIC1-Bias"  [ C:\Users\deng\Desktop\\experiment\4\bjt1-schematic1-bias.sim ] 


 ****     BJT MODEL PARAMETERS


******************************************************************************




               Q2N2222         Q2N2605         
               NPN             PNP             
          IS   14.340000E-15    6.734000E-15 
          BF  255.9           163.8          
          NF    1               1            
         VAF   74.03           45.7          
         IKF     .2847           .1832       
         ISE   14.340000E-15    6.734000E-15 
          NE    1.307           1.676        
          BR    6.092           2.763        
          NR    1               1            
          RB   10              10            
          RC    1               1.67         
         CJE   22.010000E-12    7.500000E-12 
         MJE     .377            .2861       
         CJC    7.306000E-12    6.200000E-12 
         MJC     .3416           .301        
          TF  411.100000E-12  467.500000E-12 
         XTF    3               8            
         VTF    1.7             5            
         ITF     .6              .17         
          TR   46.910000E-09   10.520000E-09 
         XTB    1.5             1.5          
          CN    2.42            2.2          
           D     .87             .52         


**** 04/26/11 23:44:01 ********* PSpice 9.2 (Mar 2000) ******** ID# 1 ********

 ** Profile: "SCHEMATIC1-Bias"  [ C:\Users\deng\Desktop\\experiment\4\bjt1-schematic1-bias.sim ] 


 ****     Junction FET MODEL PARAMETERS


******************************************************************************




               X_U6A.JX        X_U5A.JX        X_U4A.JX        
               PJF             PJF             PJF             
         VTO   -2              -2              -2            
        BETA   12.500000E-06   12.500000E-06   12.500000E-06 
          IS   50.000000E-12   50.000000E-12   50.000000E-12 


**** 04/26/11 23:44:01 ********* PSpice 9.2 (Mar 2000) ******** ID# 1 ********

 ** Profile: "SCHEMATIC1-Bias"  [ C:\Users\deng\Desktop\\experiment\4\bjt1-schematic1-bias.sim ] 


 ****     INITIAL TRANSIENT SOLUTION       TEMPERATURE =   27.000 DEG C


******************************************************************************



 NODE   VOLTAGE     NODE   VOLTAGE     NODE   VOLTAGE     NODE   VOLTAGE


(N01528)  -12.0000 (N02010)     .0070 (N02121)   10.5460 (N02306)     .5912     

(N02358)     .0246 (N02427)     .0070 (N02605)     .0020 (N02787)    -.5862     

(N02836)    -.5862 (N02917)    -.8602 (N03032)    -.8516 (N03080)    -.8516     

(N03133)    -.5912 (N03612)    -.5912 (N03794)   10.5460 (N03824)    -.8602     

(N04012)   10.5510 (N05167)   12.0000 (N05266)  -12.0000 (N17216)     .0070     

(N30585)-633.7E-09 (N007790)     .0070                   (N008230)   12.0000    

(X_U4A.3)     .0045                   (X_U4A.4)     .0070                       

(X_U4A.5)  -11.0000                   (X_U4A.6)  -11.0000                       

(X_U4A.7)     .0070                   (X_U4A.8)    9.8700                       

(X_U4A.9)     .0070                   (X_U5A.3)    -.5887                       

(X_U5A.4)    -.5862                   (X_U5A.5)  -11.0000                       

(X_U5A.6)  -11.0000                   (X_U5A.7)    -.5862                       

(X_U5A.8)    9.8700                   (X_U5A.9)    -.8605                       

(X_U6A.3)     .3079                   (X_U6A.4)     .2800                       

(X_U6A.5)  -10.7280                   (X_U6A.6)  -11.2910                       

(X_U6A.7)     .5962                   (X_U6A.8)    9.8700                       

(X_U6A.9)   10.5700                   (X_U4A.10)   -9.8700                      

(X_U4A.11)     .0070                  (X_U4A.15)     .0070                      

(X_U4A.16) 44.70E-09                  (X_U4A.17)    0.0000                      

(X_U4A.21)   12.0000                  (X_U4A.23)   11.4670                      

(X_U4A.24)     .1070                  (X_U4A.25)    -.0930                      

(X_U4A.26)     .0070                  (X_U4A.27)     .0070                      

(X_U4A.49)    0.0000                  (X_U4A.98)    0.0000                      

(X_U5A.10)   -9.8700                  (X_U5A.11)    -.8605                      

(X_U5A.15)    -.8605                  (X_U5A.16)-5.887E-06                      

(X_U5A.17)    0.0000                  (X_U5A.21)   12.0000                      

(X_U5A.23)   11.4090                  (X_U5A.24)    -.7602                      

(X_U5A.25)    -.9602                  (X_U5A.26)    -.8605                      

(X_U5A.27)    -.8605                  (X_U5A.49)    0.0000                      

(X_U5A.98)    0.0000                  (X_U6A.10)   -9.8700                      

(X_U6A.11)   10.5700                  (X_U6A.15)   10.5700                      

(X_U6A.16) 3.079E-06                  (X_U6A.17)    0.0000                      

(X_U6A.21)   12.0000                  (X_U6A.23)   12.6980                      

(X_U6A.24)   10.6510                  (X_U6A.25)   10.4510                      

(X_U6A.26)   10.5700                  (X_U6A.27)   10.5700                      

(X_U6A.49)    0.0000                  (X_U6A.98)    0.0000                  




    VOLTAGE SOURCE CURRENTS
    NAME         CURRENT

    V_V1        -5.704E-04
    V_V5        -6.647E-03
    V_V2         5.704E-04
    V_V6        -6.128E-03
    X_U6A.V2    -5.628E-04
    X_U6A.V3     2.044E-11
    X_U6A.VA3    0.000E+00
    X_U6A.VA7   -6.991E-13
    X_U6A.VA8    5.273E-04
    X_U6A.V5    -1.196E-13
    X_U6A.V4    -8.250E-14
    X_U5A.V2     1.073E-11
    X_U5A.V3     9.011E-12
    X_U5A.VA3    0.000E+00
    X_U5A.VA7    8.517E-06
    X_U5A.VA8   -8.517E-06
    X_U5A.V5    -1.008E-13
    X_U5A.V4    -1.013E-13
    X_U4A.V2     9.864E-12
    X_U4A.V3     9.878E-12
    X_U4A.VA3    0.000E+00
    X_U4A.VA7    8.804E-07
    X_U4A.VA8   -8.804E-07
    X_U4A.V5    -1.009E-13
    X_U4A.V4    -1.010E-13

    TOTAL POWER DISSIPATION   1.68E-01  WATTS


ERROR -- Convergence problem in transient analysis at Time =  .107
         Time step =  23.28E-15, minimum allowable step size =  130.0E-15

  These voltages failed to converge:

    V(N02427)                 =    -7.185V  \    -7.113V
    V(N03080)                 =    -1.918V  \    -1.893V
    V(N03612)                 =      9.94V  \      9.93V
    V(N02836)                 =    -6.587V  \    -6.575V
    V(N03133)                 =  -777.34mV  \  -775.39mV
    V(N17216)                 =     12.53V  \     12.49V
    V(N02917)                 =    -1.254V  \    -1.243V
    V(N02358)                 =    -26.31V  \    -26.72V
    V(N007790)                =     1.719V  \     1.723V
    V(N02121)                 =     2.371V  \     2.411V
    V(N03794)                 =    -2.592V  \    -2.747V
    V(N04012)                 =    -20.88V  \    -21.29V
    V(N30585)                 =     3.295V  \     3.367V
    V(N02787)                 =    24.69mV  \    20.40mV
    V(N03032)                 =     3.173V  \     3.135V
    V(X_U6A.3)                =     12.00V  \     12.41V
    V(X_U6A.4)                =  -507.70KV  \    -26.41V
    V(X_U6A.5)                =  -507.58KV  \    -26.38V
    V(X_U6A.6)                =  -507.69KV  \   -100.41V
    V(X_U6A.7)                =  -507.70KV  \   -10.00GV
    V(X_U6A.16)               =  -507.71KV  \   -10.00GV
    V(X_U6A.9)                =   416.03mV  \   827.59mV
    V(X_U6A.11)               =   416.03mV  \   827.59mV
    V(X_U6A.15)               =    -21.84V  \    -22.28V
    V(X_U6A.17)               =   507.71KV  \    10.00GV
    V(X_U6A.23)               =     14.13V  \    10.00GV
    V(X_U6A.26)               =     10.84V  \     11.28V
    V(X_U6A.27)               =     10.84V  \     11.28V
    V(X_U6A.25)               =    -20.98V  \    -21.39V
    V(X_U6A.24)               =    -20.78V  \    -21.19V
    V(X_U5A.3)                =     7.364V  \     7.351V
    V(X_U5A.4)                =    -5.681V  \    -5.644V
    V(X_U5A.5)                =    -5.890V  \    -5.878V
    V(X_U5A.6)                =    -2.074V  \    -2.061V
    V(X_U5A.7)                =    10.00GV  \    10.00GV
    V(X_U5A.16)               =    10.00GV  \    10.00GV
    V(X_U5A.9)                =     11.91V  \     11.94V
    V(X_U5A.11)               =     11.91V  \     11.94V
    V(X_U5A.17)               =   -10.00GV  \   -10.00GV
    V(X_U5A.23)               =     11.15V  \     11.07V
    V(X_U5A.25)               =    -1.354V  \    -1.343V
    V(X_U5A.24)               =    -1.154V  \    -1.143V
    V(X_U4A.4)                =    -2.396V  \    -2.370V
    V(X_U4A.6)                =  -180.17mV  \  -200.53mV
    V(X_U4A.7)                =  -834.79mV  \  -859.87mV
    V(X_U4A.16)               =     8.243V  \     8.219V
    V(X_U4A.9)                =    -11.83V  \    -12.36V
    V(X_U4A.11)               =    -11.83V  \    -12.36V
    V(X_U4A.15)               =    -6.129V  \    -6.055V
    V(X_U4A.17)               =    -8.243V  \    -8.219V
    V(X_U4A.26)               =    -4.871V  \    -4.945V
    V(X_U4A.27)               =    -4.871V  \    -4.945V
    V(X_U4A.25)               =    -7.285V  \    -7.213V
    V(X_U4A.24)               =    -7.085V  \    -7.013V

  These supply currents failed to converge:

    I(X_U6A.EH)               =    2.538MA  \    10.00GA
    I(X_U6A.E1)               =     10.04A  \     10.01A
    I(X_U5A.EOS)              =    -3.172A  \    -3.180A
    I(X_U5A.EH)               =    10.00GA  \   -10.00GA
    I(X_U5A.E1)               =      9.94A  \      9.93A
    I(X_U4A.EOS)              =     4.815A  \     4.887A
    I(X_U4A.EH)               =    10.00GA  \    10.00GA
    I(X_U6A.L2)               =   -1.474uA  \  -409.45mA
    I(X_U5A.L2)               =     4.636A  \     4.649A
    I(V_V5)                   =   -10.00GA  \    10.00GA
    I(V_V6)                   =    10.00GA  \    10.00GA
    I(X_U6A.VA3)              =    349.05A  \    523.58A
    I(X_U6A.VA7)              =     12.00A  \     11.54A
    I(X_U6A.VA8)              =    -10.04A  \    -10.01A
    I(X_U5A.V2)               =    10.00GA  \   -10.00GA
    I(X_U5A.VA3)              =    7.693KA  \    7.705KA
    I(X_U5A.VA7)              =     2.061A  \     2.072A
    I(X_U5A.VA8)              =     -9.94A  \     -9.93A
    I(X_U5A.V5)               =     10.72A  \     10.76A
    I(X_U4A.V3)               =   -10.00GA  \   -10.00GA
    I(X_U4A.VA3)              =    4.098KA  \    3.874KA
    I(X_U4A.V5)               =    -7.286A  \    -7.213A
    I(X_U4A.V4)               =     11.20A  \     11.73A

  These devices failed to converge:
    X_D12.D1  X_D12.D1A X_D14.D1  X_U6A.D6  X_U6A.D4  X_U5A.D1  X_U5A.D5  
    X_U5A.D4  X_U4A.D2  X_U4A.D3  X_D11.D1  X_D11.D1A X_U6A.F1  X_U5A.F1  
    X_U4A.F1  X_U6A.J1  X_U6A.J2  X_U5A.J1  X_U5A.J2  X_U4A.J1  X_U4A.J2  
    Q_Q1      



  Last node voltages tried were:

 NODE   VOLTAGE     NODE   VOLTAGE     NODE   VOLTAGE     NODE   VOLTAGE


(N01528)  -12.0000 (N02010)   -2.9166 (N02121)    2.3713 (N02306)   14.3080     

(N02358)  -26.3080 (N02427)   -7.1853 (N02605)   -9.0820 (N02787)     .0247     

(N02836)   -6.5871 (N02917)   -1.2544 (N03032)    3.1728 (N03080)   -1.9184     

(N03133)    -.7773 (N03612)    9.9439 (N03794)   -2.5924 (N03824)   13.4370     

(N04012)  -20.8820 (N05167)   12.0000 (N05266)  -12.0000 (N17216)   12.5330     

(N30585)    3.2948 (N007790)    1.7188                   (N008230)   12.0000    

(X_U4A.3)   12.0000                   (X_U4A.4)   -2.3956                       

(X_U4A.5)   -2.2267                   (X_U4A.6)    -.1802                       

(X_U4A.7)    -.8348                   (X_U4A.8)    9.8700                       

(X_U4A.9)  -11.8280                   (X_U5A.3)    7.3640                       

(X_U5A.4)   -5.6813                   (X_U5A.5)   -5.8898                       

(X_U5A.6)   -2.0742                   (X_U5A.7) 10.00E+09                       

(X_U5A.8)    9.8700                   (X_U5A.9)   11.9100                       

(X_U6A.3)   12.0000                   (X_U6A.4)-507.7E+03                       

(X_U6A.5)-507.6E+03                   (X_U6A.6)-507.7E+03                       

(X_U6A.7)-507.7E+03                   (X_U6A.8)    9.8700                       

(X_U6A.9)     .4160                   (X_U4A.10)   -9.8700                      

(X_U4A.11)  -11.8280                  (X_U4A.15)   -6.1294                      

(X_U4A.16)    8.2428                  (X_U4A.17)   -8.2428                      

(X_U4A.21)   12.0000                  (X_U4A.23)   12.9580                      

(X_U4A.24)   -7.0853                  (X_U4A.25)   -7.2853                      

(X_U4A.26)   -4.8706                  (X_U4A.27)   -4.8706                      

(X_U4A.49)    0.0000                  (X_U4A.98)  -11.0000                      

(X_U5A.10)   -9.8700                  (X_U5A.11)   11.9100                      

(X_U5A.15)   -2.3154                  (X_U5A.16) 10.00E+09                      

(X_U5A.17)-10.00E+09                  (X_U5A.21)   12.0000                      

(X_U5A.23)   11.1520                  (X_U5A.24)   -1.1544                      

(X_U5A.25)   -1.3544                  (X_U5A.26)   -8.6846                      

(X_U5A.27)   -8.6846                  (X_U5A.49)    0.0000                      

(X_U5A.98)  -11.0000                  (X_U6A.10)   -9.8700                      

(X_U6A.11)     .4160                  (X_U6A.15)  -21.8430                      

(X_U6A.16)-507.7E+03                  (X_U6A.17) 507.7E+03                      

(X_U6A.21)   12.0000                  (X_U6A.23)   14.1260                      

(X_U6A.24)  -20.7820                  (X_U6A.25)  -20.9820                      

(X_U6A.26)   10.8430                  (X_U6A.27)   10.8430                      

(X_U6A.49)    0.0000                  (X_U6A.98)  -11.0000                  

