
**** 11/08/10 16:50:42 ********* PSpice 9.2 (Mar 2000) ******** ID# 1 ********

 ** Profile: "SCHEMATIC1-Bias"  [ D:\09300720075\1_11-schematic1-bias.sim ] 


 ****     CIRCUIT DESCRIPTION


******************************************************************************




** Creating circuit file "1_11-schematic1-bias.sim.cir" 
** WARNING: THIS AUTOMATICALLY GENERATED FILE MAY BE OVERWRITTEN BY SUBSEQUENT SIMULATIONS

*Libraries: 
* Local Libraries :
* From [PSPICE NETLIST] section of C:\Program Files\Orcad\PSpice\PSpice.ini file:
.lib "nom.lib" 

*Analysis directives: 
.TRAN  0 2000us 0 0.01u 
.PROBE V(*) I(*) W(*) D(*) NOISE(*) 
.INC ".\1_11-SCHEMATIC1.net" 



**** INCLUDING 1_11-SCHEMATIC1.net ****
* source 1_11
V_V4         N01943 0  
+SIN 0 1 10.1k 0 0 0
L_L3         N01943 N01981  8.3m  
C_C3         N01981 N02008  300p  
R_R2         0 N02008  510  

**** RESUMING 1_11-schematic1-bias.sim.cir ****
.END

**** 11/08/10 16:50:42 ********* PSpice 9.2 (Mar 2000) ******** ID# 1 ********

 ** Profile: "SCHEMATIC1-Bias"  [ D:\09300720075\1_11-schematic1-bias.sim ] 


 ****     INITIAL TRANSIENT SOLUTION       TEMPERATURE =   27.000 DEG C


******************************************************************************



 NODE   VOLTAGE     NODE   VOLTAGE     NODE   VOLTAGE     NODE   VOLTAGE


(N01943)    0.0000 (N01981)    0.0000 (N02008)    0.0000 




    VOLTAGE SOURCE CURRENTS
    NAME         CURRENT

    V_V4         0.000E+00

    TOTAL POWER DISSIPATION   0.00E+00  WATTS



          JOB CONCLUDED

          TOTAL JOB TIME           15.83
