
**** 11/29/10 15:29:15 ********* PSpice 9.2 (Mar 2000) ******** ID# 1 ********

 ** Profile: "SCHEMATIC1-Bias"  [ D:\09300720075\1_3_1-schematic1-bias.sim ] 


 ****     CIRCUIT DESCRIPTION


******************************************************************************




** Creating circuit file "1_3_1-schematic1-bias.sim.cir" 
** WARNING: THIS AUTOMATICALLY GENERATED FILE MAY BE OVERWRITTEN BY SUBSEQUENT SIMULATIONS

*Libraries: 
* Local Libraries :
* From [PSPICE NETLIST] section of C:\Program Files\Orcad\PSpice\PSpice.ini file:
.lib "nom.lib" 

*Analysis directives: 
.AC DEC 100 10 100g
.PROBE V(*) I(*) W(*) D(*) NOISE(*) 
.INC ".\1_3_1-SCHEMATIC1.net" 



**** INCLUDING 1_3_1-SCHEMATIC1.net ****
* source 1_3_1
C_C5         0 N02265  100u  
R_R2         N02294 N01723  11k  
C_C6         0 N02015  100u  
R_R3         N02236 N01723  24  
R_R4         N02015 N01723  12k  
V_V3         N01297 0 DC 0Vdc AC 10mVac 
R_R5         N01966 N01723  430  
V_V2         N01723 0 12Vdc
C_C1         N01297 N02294  10u  
R_R6         N01936 N01723  2k  
C_C2         N02236 N02096  10u  
R_R7         0 N01936  6.2k  
C_C3         N01966 N01936  10u  
R_R8         0 N01674  620  
C_C4         N01674 N01644  10u  
R_R9         0 N02096  150  
Q_Q1         N02236 N02294 N02265 Q2N2222
R_R10         0 N02015  3.6k  
Q_Q2         N01966 N02015 N02096 Q2N2222
R_R11         0 N02265  300  
Q_Q3         N01723 N01936 N01674 Q2N2222
R_R12         0 N02294  18k  

**** RESUMING 1_3_1-schematic1-bias.sim.cir ****
.END

ERROR -- Less than 2 connections at node N01644
ERROR -- Node N01644 is floating