
**** 12/06/10 15:47:21 ********* PSpice 9.2 (Mar 2000) ******** ID# 1 ********

 ** Profile: "SCHEMATIC1-Bias"  [ D:\09300720075\1_4_3-schematic1-bias.sim ] 


 ****     CIRCUIT DESCRIPTION


******************************************************************************




** Creating circuit file "1_4_3-schematic1-bias.sim.cir" 
** WARNING: THIS AUTOMATICALLY GENERATED FILE MAY BE OVERWRITTEN BY SUBSEQUENT SIMULATIONS

*Libraries: 
* Local Libraries :
* From [PSPICE NETLIST] section of C:\Program Files\Orcad\PSpice\PSpice.ini file:
.lib "nom.lib" 

*Analysis directives: 
.AC DEC 100 1 100000000
.PROBE V(*) I(*) W(*) D(*) NOISE(*) 
.INC ".\1_4_3-SCHEMATIC1.net" 



**** INCLUDING 1_4_3-SCHEMATIC1.net ****
* source 1_4_3
Q_Q4         N02958 N02958 N03694 Q2N2605
Q_Q2         N01129 N01872 N01808 Q2N2222
V_V5         0 N00883 6Vdc
R_R2         N005091 N00774  51  
R_R7         N03694 N00774  51  
Q_Q1         N01872 N01872 N01779 Q2N2222
R_R3         N005311 N00774  51  
R_R8         N03665 N00774  160  
R_R4         N00883 N01808  51  
V_V1         N01258 0 DC 0Vdc AC 5mVac 
Q_Q2         N00965 N01089 N01129 Q2N2222
$
ERROR -- Name "Q_Q2" is defined more than once
R_R9         0 N03657  1k  
V_V3         0 N01089 DC 0Vdc AC 5mVac 
Q_Q3         N00965 N03909 N005311 Q2N2605
Q_Q4         N00994 N03909 N005091 Q2N2605
$
ERROR -- Name "Q_Q4" is defined more than once
R_R5         N01872 N02958  1.1k  
Q_Q1         N00994 N01258 N01129 Q2N2222
$
ERROR -- Name "Q_Q1" is defined more than once
Q_Q3         N00883 N00994 N03909 Q2N2605
$
ERROR -- Name "Q_Q3" is defined more than once
R_R6         N00883 N01779  51  
Q_Q3         N03657 N02958 N03665 Q2N2605
$
ERROR -- Name "Q_Q3" is defined more than once
V_V4         N00774 0 6Vdc

**** RESUMING 1_4_3-schematic1-bias.sim.cir ****
.END
