
**** 12/06/10 16:48:24 ********* PSpice 9.2 (Mar 2000) ******** ID# 1 ********

 ** Profile: "SCHEMATIC1-Bias"  [ D:\09300720075\1_5_1-schematic1-bias.sim ] 


 ****     CIRCUIT DESCRIPTION


******************************************************************************




** Creating circuit file "1_5_1-schematic1-bias.sim.cir" 
** WARNING: THIS AUTOMATICALLY GENERATED FILE MAY BE OVERWRITTEN BY SUBSEQUENT SIMULATIONS

*Libraries: 
* Local Libraries :
* From [PSPICE NETLIST] section of C:\Program Files\Orcad\PSpice\PSpice.ini file:
.lib "nom.lib" 

*Analysis directives: 
.AC DEC 100 1 100m
--------------$
ERROR -- Invalid value
.PROBE V(*) I(*) W(*) D(*) NOISE(*) 
.INC ".\1_5_1-SCHEMATIC1.net" 



**** INCLUDING 1_5_1-SCHEMATIC1.net ****
* source 1_5_1
R_R2         N01898 N00944  1.8k  
C_C2         N01423 N01393  10u  
R_R3         N01642 N01580  47  
C_C3         N03477 N01393  100u  
R_R4         0 N01642  1.5k  
C_C4         0 N01472  100u  
R_R5         0 N01669  68k  
C_C5         0 N01642  100u  
Q_Q1         N01898 N01669 N01580 Q2N2222
R_R6         0 N01927  4.7k  
V_V1         N00944 0 12Vdc
Q_Q2         N01423 N01927 N01472 Q2N2222
R_R7         0 N01472  200  
R_R8         0 N01393  0.51  
C_C6         N01110 N01669  10u  
R_R9         N01423 N00944  1k  
R_R10         N01927 N00944  24k  
V_V2         N01110 0 DC 0Vdc AC 1mVac 
R_R11         N03477 N01580  5.1k  
R_R1         N01669 N00944  56k  
C_C1         N01898 N01927  10u  

**** RESUMING 1_5_1-schematic1-bias.sim.cir ****
.END
