
**** 12/10/10 14:44:10 ********* PSpice 9.2 (Mar 2000) ******** ID# 1 ********

 ** Profile: "SCHEMATIC1-Bias"  [ C:\Users\deng\Desktop\\experiments\09300720075\1_5_2-schematic1-bias.sim ] 


 ****     CIRCUIT DESCRIPTION


******************************************************************************




** Creating circuit file "1_5_2-schematic1-bias.sim.cir" 
** WARNING: THIS AUTOMATICALLY GENERATED FILE MAY BE OVERWRITTEN BY SUBSEQUENT SIMULATIONS

*Libraries: 
* Local Libraries :
* From [PSPICE NETLIST] section of d:\orcad92\PSpice\PSpice.ini file:
.lib "nom.lib" 

*Analysis directives: 
.AC DEC 100 1 100meg
.PROBE V(*) I(*) W(*) D(*) NOISE(*) 
.INC ".\1_5_2-SCHEMATIC1.net" 



**** INCLUDING 1_5_2-SCHEMATIC1.net ****
* source 1_5_2
I_I1         N01555 N01585 DC 0Adc AC 0.1uAac 
R_R9         0 N02678  180  
C_C3         N01511 N01555  10u  
R_R1         N01951 N01409  1.8k  
R_R10         0 N02570  3.9k  
C_C4         N02242 N01585  100u  
R_R2         N01922 N01409  1k  
R_R11         0 N02644  5.1k  
C_C5         0 N01893  100u  
R_R3         N02349 N01409  62k  
R_R17         N02644 N04678  47  
R_R12         0 N02349  110k  
C_C6         0 N02644  100u  
R_R4         N02507 N01409  2.2k  
C_C8         N02077 N01951  10u  
R_R13         0 N01893  24k  
C_C7         0 N02678  100u  
R_R5         N02570 N01409  28k  
R_R14         0 N01951  3.3k  
R_R15         N01951 N02242  10k  
Q_Q1         N01922 N01951 N01893 Q2N2222
V_V1         N01409 0 12Vdc
R_R6         N01511 N01409  1.2k  
R_R16         0 N02077  1G  
Q_Q2         N02507 N02349 N04678 Q2N2222
C_C1         N01922 N02349  10u  
Q_Q3         N01511 N02570 N02678 Q2N2222
R_R8         0 N01585  100  
C_C2         N02507 N02570  10u  

**** RESUMING 1_5_2-schematic1-bias.sim.cir ****
.END

ERROR -- Node N01555 is floating