
**** 12/20/10 16:40:50 ********* PSpice 9.2 (Mar 2000) ******** ID# 1 ********

 ** Profile: "SCHEMATIC1-Bias"  [ D:\09300720075\1_6_10_5jie-schematic1-bias.sim ] 


 ****     CIRCUIT DESCRIPTION


******************************************************************************




** Creating circuit file "1_6_10_5jie-schematic1-bias.sim.cir" 
** WARNING: THIS AUTOMATICALLY GENERATED FILE MAY BE OVERWRITTEN BY SUBSEQUENT SIMULATIONS

*Libraries: 
* Local Libraries :
* From [PSPICE NETLIST] section of C:\Program Files\Orcad\PSpice\PSpice.ini file:
.lib "nom.lib" 

*Analysis directives: 
.AC DEC 100 1 100meg
.PROBE V(*) I(*) W(*) D(*) NOISE(*) 
.INC ".\1_6_10_5jie-SCHEMATIC1.net" 



**** INCLUDING 1_6_10_5jie-SCHEMATIC1.net ****
* source 1_6_10_5JIE
R_R22         N00879 N02539  36k  
V_V13         N01094 0 12Vdc
R_R32         N00879 N01106  10k  
R_R11         N00845 N00806  20k  
R_R12         N02539 N02399  13k  
C_C22         N00879 N02399  510p  
R_R21         N00745 N00845  33k  
X_U23         N00774 N00911 N01094 N01052 N00745 uA741
R_R42         N01106 N11399  10k  
X_U21         N00806 N00946 N01178 N01136 N00879 uA741
R_R31         N00745 N00946  10k  
R_R41         N00946 N00879  10k  
V_V22         0 N02433 12Vdc
C_C11         N00845 N00879  2000p  
X_U22         N02399 N01106 N02607 N02433 N11399 uA741
C_C21         N00745 N00806  180p  
V_V23         0 N01052 12Vdc
R_R23         0 N00911  1g  
V_V11         N01178 0 12Vdc
V_V12         N02607 0 12Vdc
R_R13         N00697 N00774  16k  
V_V21         0 N01136 12Vdc
C_C12         N02539 N03423  1000p  
R_R33         N00911 N00745  10k  
C_C13         0 N00774  1000p  
V_V3         N00697 0 DC 0Vdc AC 1Vac 

**** RESUMING 1_6_10_5jie-schematic1-bias.sim.cir ****
.END

ERROR -- Less than 2 connections at node N03423
ERROR -- Node N03423 is floating