
**** 11/01/10 16:50:01 ********* PSpice 9.2 (Mar 2000) ******** ID# 1 ********

 ** Profile: "SCHEMATIC1-Bias"  [ D:\09300720075\d1101-schematic1-bias.sim ] 


 ****     CIRCUIT DESCRIPTION


******************************************************************************




** Creating circuit file "d1101-schematic1-bias.sim.cir" 
** WARNING: THIS AUTOMATICALLY GENERATED FILE MAY BE OVERWRITTEN BY SUBSEQUENT SIMULATIONS

*Libraries: 
* Local Libraries :
* From [PSPICE NETLIST] section of C:\Program Files\Orcad\PSpice\PSpice.ini file:
.lib "nom.lib" 

*Analysis directives: 
.TRAN  0 1000u 0 1u 
.PROBE V(*) I(*) W(*) D(*) NOISE(*) 
.INC ".\D1101-SCHEMATIC1.net" 



**** INCLUDING D1101-SCHEMATIC1.net ****
* source D1101
R_R2         0 N02230  3.9k  
V_V2         N00636 0  
+SIN 0 1 10k 0 0 0
L_L3         N00636 N02230  6.2mH  

**** RESUMING d1101-schematic1-bias.sim.cir ****
.END

**** 11/01/10 16:50:01 ********* PSpice 9.2 (Mar 2000) ******** ID# 1 ********

 ** Profile: "SCHEMATIC1-Bias"  [ D:\09300720075\d1101-schematic1-bias.sim ] 


 ****     INITIAL TRANSIENT SOLUTION       TEMPERATURE =   27.000 DEG C


******************************************************************************



 NODE   VOLTAGE     NODE   VOLTAGE     NODE   VOLTAGE     NODE   VOLTAGE


(N00636)    0.0000 (N02230)    0.0000 




    VOLTAGE SOURCE CURRENTS
    NAME         CURRENT

    V_V2         0.000E+00

    TOTAL POWER DISSIPATION   0.00E+00  WATTS



          JOB CONCLUDED

          TOTAL JOB TIME             .11
